
     RDKit          3D

 44 47  0  0  0  0  0  0  0  0999 V2000
   -2.6376    0.9782   -1.5110 C   0  0  0  0  0  0  0  0  0  0  0  0
   -2.1957    0.5716   -0.1431 C   0  0  2  0  0  0  0  0  0  0  0  0
   -1.2696    1.5293    0.5262 C   0  0  0  0  0  0  0  0  0  0  0  0
    0.1608    1.1176    0.5755 C   0  0  0  0  0  0  0  0  0  0  0  0
    0.5023    0.2641   -0.6464 C   0  0  1  0  0  0  0  0  0  0  0  0
    1.9522    0.0518   -0.6237 C   0  0  0  0  0  0  0  0  0  0  0  0
    2.7287    1.2175   -0.7467 C   0  0  0  0  0  0  0  0  0  0  0  0
    4.1058    1.1631   -0.7378 C   0  0  0  0  0  0  0  0  0  0  0  0
    4.7256   -0.0569   -0.6060 C   0  0  0  0  0  0  0  0  0  0  0  0
    6.0947   -0.1697   -0.5907 O   0  0  0  0  0  0  0  0  0  0  0  0
    3.9390   -1.2021   -0.4856 C   0  0  0  0  0  0  0  0  0  0  0  0
    2.5693   -1.1423   -0.4952 C   0  0  0  0  0  0  0  0  0  0  0  0
    1.7683   -2.3692   -0.3754 C   0  0  0  0  0  0  0  0  0  0  0  0
    0.3371   -2.1796   -0.0563 C   0  0  0  0  0  0  0  0  0  0  0  0
   -0.3095   -0.9897   -0.7098 C   0  0  1  0  0  0  0  0  0  0  0  0
   -1.7022   -0.8455   -0.1756 C   0  0  1  0  0  0  0  0  0  0  0  0
   -1.9127   -1.3829    1.2156 C   0  0  0  0  0  0  0  0  0  0  0  0
   -3.2336   -0.7280    1.6396 C   0  0  0  0  0  0  0  0  0  0  0  0
   -3.4363    0.4439    0.7349 C   0  0  1  0  0  0  0  0  0  0  0  0
   -3.6158    1.6049    1.4945 O   0  0  0  0  0  0  0  0  0  0  0  0
   -2.4162    2.0482   -1.6960 H   0  0  0  0  0  0  0  0  0  0  0  0
   -3.7266    0.7577   -1.6943 H   0  0  0  0  0  0  0  0  0  0  0  0
   -2.0981    0.4130   -2.3174 H   0  0  0  0  0  0  0  0  0  0  0  0
   -1.3416    2.4969   -0.0130 H   0  0  0  0  0  0  0  0  0  0  0  0
   -1.5922    1.7687    1.5820 H   0  0  0  0  0  0  0  0  0  0  0  0
    0.7927    2.0247    0.4941 H   0  0  0  0  0  0  0  0  0  0  0  0
    0.4630    0.6242    1.5139 H   0  0  0  0  0  0  0  0  0  0  0  0
    0.2907    0.9320   -1.5089 H   0  0  0  0  0  0  0  0  0  0  0  0
    2.2761    2.1897   -0.8554 H   0  0  0  0  0  0  0  0  0  0  0  0
    4.7201    2.0623   -0.8325 H   0  0  0  0  0  0  0  0  0  0  0  0
    6.6704   -0.1290    0.2422 H   0  0  0  0  0  0  0  0  0  0  0  0
    4.3914   -2.1731   -0.3809 H   0  0  0  0  0  0  0  0  0  0  0  0
    1.8984   -3.0307   -1.2645 H   0  0  0  0  0  0  0  0  0  0  0  0
    2.2339   -2.9706    0.4622 H   0  0  0  0  0  0  0  0  0  0  0  0
   -0.2030   -3.1045   -0.4265 H   0  0  0  0  0  0  0  0  0  0  0  0
    0.2039   -2.2145    1.0436 H   0  0  0  0  0  0  0  0  0  0  0  0
   -0.4038   -1.2515   -1.7887 H   0  0  0  0  0  0  0  0  0  0  0  0
   -2.4275   -1.4043   -0.8299 H   0  0  0  0  0  0  0  0  0  0  0  0
   -2.0869   -2.4746    1.2010 H   0  0  0  0  0  0  0  0  0  0  0  0
   -1.1848   -1.0571    1.9554 H   0  0  0  0  0  0  0  0  0  0  0  0
   -4.0730   -1.4695    1.5729 H   0  0  0  0  0  0  0  0  0  0  0  0
   -3.2089   -0.4028    2.6962 H   0  0  0  0  0  0  0  0  0  0  0  0
   -4.3349    0.3130    0.0988 H   0  0  0  0  0  0  0  0  0  0  0  0
   -3.4141    1.4162    2.4627 H   0  0  0  0  0  0  0  0  0  0  0  0
  2  1  1  6
  2  3  1  0
  3  4  1  0
  4  5  1  0
  5  6  1  0
  6  7  2  0
  7  8  1  0
  8  9  2  0
  9 10  1  0
  9 11  1  0
 11 12  2  0
 12 13  1  0
 13 14  1  0
 14 15  1  0
 15 16  1  0
 16 17  1  0
 17 18  1  0
 18 19  1  0
 19 20  1  0
 16  2  1  0
 19  2  1  0
 15  5  1  0
 12  6  1  0
  1 21  1  0
  1 22  1  0
  1 23  1  0
  3 24  1  0
  3 25  1  0
  4 26  1  0
  4 27  1  0
  5 28  1  6
  7 29  1  0
  8 30  1  0
 10 31  1  0
 11 32  1  0
 13 33  1  0
 13 34  1  0
 14 35  1  0
 14 36  1  0
 15 37  1  6
 16 38  1  6
 17 39  1  0
 17 40  1  0
 18 41  1  0
 18 42  1  0
 19 43  1  6
 20 44  1  0
M  END
