
     RDKit          3D

 44 47  0  0  0  0  0  0  0  0999 V2000
   -3.0619    1.8626   -0.4535 C   0  0  0  0  0  0  0  0  0  0  0  0
   -2.1318    0.6458   -0.3156 C   0  0  1  0  0  0  0  0  0  0  0  0
   -1.4812    0.4696   -1.6265 C   0  0  0  0  0  0  0  0  0  0  0  0
   -0.1161   -0.1194   -1.6069 C   0  0  0  0  0  0  0  0  0  0  0  0
    0.6974    0.5805   -0.5687 C   0  0  2  0  0  0  0  0  0  0  0  0
    2.1017    0.1954   -0.5190 C   0  0  0  0  0  0  0  0  0  0  0  0
    3.0453    0.9187   -1.2470 C   0  0  0  0  0  0  0  0  0  0  0  0
    4.3866    0.5817   -1.2199 C   0  0  0  0  0  0  0  0  0  0  0  0
    4.8097   -0.4901   -0.4602 C   0  0  0  0  0  0  0  0  0  0  0  0
    6.1545   -0.7996   -0.4550 O   0  0  0  0  0  0  0  0  0  0  0  0
    3.8758   -1.1983    0.2544 C   0  0  0  0  0  0  0  0  0  0  0  0
    2.5136   -0.8655    0.2341 C   0  0  0  0  0  0  0  0  0  0  0  0
    1.5849   -1.6717    1.0218 C   0  0  0  0  0  0  0  0  0  0  0  0
    0.1671   -1.1868    1.0726 C   0  0  0  0  0  0  0  0  0  0  0  0
    0.0979    0.2721    0.7909 C   0  0  2  0  0  0  0  0  0  0  0  0
   -1.2578    0.8692    0.8503 C   0  0  2  0  0  0  0  0  0  0  0  0
   -2.0835    0.3914    2.0200 C   0  0  0  0  0  0  0  0  0  0  0  0
   -2.9498   -0.7372    1.4830 C   0  0  0  0  0  0  0  0  0  0  0  0
   -3.0414   -0.5283   -0.0018 C   0  0  1  0  0  0  0  0  0  0  0  0
   -4.3589   -0.2623   -0.3964 O   0  0  0  0  0  0  0  0  0  0  0  0
   -2.3920    2.6758   -0.8589 H   0  0  0  0  0  0  0  0  0  0  0  0
   -3.5233    2.1280    0.4995 H   0  0  0  0  0  0  0  0  0  0  0  0
   -3.8151    1.6950   -1.2523 H   0  0  0  0  0  0  0  0  0  0  0  0
   -1.4191    1.4434   -2.1914 H   0  0  0  0  0  0  0  0  0  0  0  0
   -2.1357   -0.1753   -2.2719 H   0  0  0  0  0  0  0  0  0  0  0  0
    0.3528    0.0973   -2.6119 H   0  0  0  0  0  0  0  0  0  0  0  0
   -0.1095   -1.2159   -1.5158 H   0  0  0  0  0  0  0  0  0  0  0  0
    0.5472    1.6819   -0.7204 H   0  0  0  0  0  0  0  0  0  0  0  0
    2.6794    1.7550   -1.8335 H   0  0  0  0  0  0  0  0  0  0  0  0
    5.1242    1.1512   -1.7922 H   0  0  0  0  0  0  0  0  0  0  0  0
    6.8180   -0.4033    0.2181 H   0  0  0  0  0  0  0  0  0  0  0  0
    4.2382   -2.0341    0.8411 H   0  0  0  0  0  0  0  0  0  0  0  0
    2.0359   -1.7545    2.0486 H   0  0  0  0  0  0  0  0  0  0  0  0
    1.6318   -2.7169    0.5861 H   0  0  0  0  0  0  0  0  0  0  0  0
   -0.4667   -1.8050    0.4043 H   0  0  0  0  0  0  0  0  0  0  0  0
   -0.2059   -1.3907    2.1011 H   0  0  0  0  0  0  0  0  0  0  0  0
    0.7413    0.7921    1.5348 H   0  0  0  0  0  0  0  0  0  0  0  0
   -1.1298    1.9816    0.9986 H   0  0  0  0  0  0  0  0  0  0  0  0
   -2.7709    1.1901    2.3696 H   0  0  0  0  0  0  0  0  0  0  0  0
   -1.4720    0.0862    2.8813 H   0  0  0  0  0  0  0  0  0  0  0  0
   -2.5780   -1.7311    1.7641 H   0  0  0  0  0  0  0  0  0  0  0  0
   -3.9890   -0.6582    1.9064 H   0  0  0  0  0  0  0  0  0  0  0  0
   -2.7357   -1.4487   -0.5713 H   0  0  0  0  0  0  0  0  0  0  0  0
   -4.3782   -0.2719   -1.3907 H   0  0  0  0  0  0  0  0  0  0  0  0
  2  1  1  6
  2  3  1  0
  3  4  1  0
  4  5  1  0
  5  6  1  0
  6  7  2  0
  7  8  1  0
  8  9  2  0
  9 10  1  0
  9 11  1  0
 11 12  2  0
 12 13  1  0
 13 14  1  0
 14 15  1  0
 15 16  1  0
 16 17  1  0
 17 18  1  0
 18 19  1  0
 19 20  1  0
 16  2  1  0
 19  2  1  0
 15  5  1  0
 12  6  1  0
  1 21  1  0
  1 22  1  0
  1 23  1  0
  3 24  1  0
  3 25  1  0
  4 26  1  0
  4 27  1  0
  5 28  1  6
  7 29  1  0
  8 30  1  0
 10 31  1  0
 11 32  1  0
 13 33  1  0
 13 34  1  0
 14 35  1  0
 14 36  1  0
 15 37  1  1
 16 38  1  1
 17 39  1  0
 17 40  1  0
 18 41  1  0
 18 42  1  0
 19 43  1  6
 20 44  1  0
M  END
