
     RDKit          3D

 44 47  0  0  0  0  0  0  0  0999 V2000
   -2.7204   -1.4292   -1.1620 C   0  0  0  0  0  0  0  0  0  0  0  0
   -2.1568   -0.1464   -0.5424 C   0  0  2  0  0  0  0  0  0  0  0  0
   -1.1905    0.4458   -1.4952 C   0  0  0  0  0  0  0  0  0  0  0  0
   -0.0851    1.2304   -0.9073 C   0  0  0  0  0  0  0  0  0  0  0  0
    0.5532    0.6726    0.3088 C   0  0  2  0  0  0  0  0  0  0  0  0
    1.9963    0.3830    0.1065 C   0  0  0  0  0  0  0  0  0  0  0  0
    2.7903    1.4510   -0.3259 C   0  0  0  0  0  0  0  0  0  0  0  0
    4.1338    1.3076   -0.5472 C   0  0  0  0  0  0  0  0  0  0  0  0
    4.7160    0.0776   -0.3375 C   0  0  0  0  0  0  0  0  0  0  0  0
    6.0953   -0.0585   -0.5676 O   0  0  0  0  0  0  0  0  0  0  0  0
    3.9497   -0.9884    0.0890 C   0  0  0  0  0  0  0  0  0  0  0  0
    2.5913   -0.8321    0.3098 C   0  0  0  0  0  0  0  0  0  0  0  0
    1.7984   -1.9930    0.7662 C   0  0  0  0  0  0  0  0  0  0  0  0
    0.3399   -1.8326    0.3493 C   0  0  0  0  0  0  0  0  0  0  0  0
   -0.1495   -0.5122    0.9055 C   0  0  2  0  0  0  0  0  0  0  0  0
   -1.6425   -0.3658    0.8337 C   0  0  1  0  0  0  0  0  0  0  0  0
   -2.0854    0.7835    1.6898 C   0  0  0  0  0  0  0  0  0  0  0  0
   -2.9682    1.6619    0.8180 C   0  0  0  0  0  0  0  0  0  0  0  0
   -3.3717    0.7557   -0.3035 C   0  0  2  0  0  0  0  0  0  0  0  0
   -4.3810   -0.0982    0.1865 O   0  0  0  0  0  0  0  0  0  0  0  0
   -2.1737   -2.3164   -0.7675 H   0  0  0  0  0  0  0  0  0  0  0  0
   -2.6720   -1.3711   -2.2693 H   0  0  0  0  0  0  0  0  0  0  0  0
   -3.7838   -1.5749   -0.8943 H   0  0  0  0  0  0  0  0  0  0  0  0
   -1.7715    1.1351   -2.1788 H   0  0  0  0  0  0  0  0  0  0  0  0
   -0.7961   -0.3423   -2.2023 H   0  0  0  0  0  0  0  0  0  0  0  0
    0.7176    1.3354   -1.6960 H   0  0  0  0  0  0  0  0  0  0  0  0
   -0.4489    2.2907   -0.7657 H   0  0  0  0  0  0  0  0  0  0  0  0
    0.5243    1.4813    1.0996 H   0  0  0  0  0  0  0  0  0  0  0  0
    2.3497    2.4290   -0.4969 H   0  0  0  0  0  0  0  0  0  0  0  0
    4.7299    2.1425   -0.8804 H   0  0  0  0  0  0  0  0  0  0  0  0
    6.6784    0.1308    0.2433 H   0  0  0  0  0  0  0  0  0  0  0  0
    4.4557   -1.9360    0.2394 H   0  0  0  0  0  0  0  0  0  0  0  0
    1.9157   -2.0877    1.8555 H   0  0  0  0  0  0  0  0  0  0  0  0
    2.1755   -2.8884    0.2055 H   0  0  0  0  0  0  0  0  0  0  0  0
    0.3206   -1.8847   -0.7431 H   0  0  0  0  0  0  0  0  0  0  0  0
   -0.2233   -2.6301    0.8520 H   0  0  0  0  0  0  0  0  0  0  0  0
    0.1086   -0.5400    2.0057 H   0  0  0  0  0  0  0  0  0  0  0  0
   -2.0981   -1.2923    1.2644 H   0  0  0  0  0  0  0  0  0  0  0  0
   -2.6705    0.4439    2.5879 H   0  0  0  0  0  0  0  0  0  0  0  0
   -1.2656    1.4023    2.0761 H   0  0  0  0  0  0  0  0  0  0  0  0
   -2.4655    2.5843    0.5033 H   0  0  0  0  0  0  0  0  0  0  0  0
   -3.8852    1.9510    1.3674 H   0  0  0  0  0  0  0  0  0  0  0  0
   -3.6824    1.2760   -1.2135 H   0  0  0  0  0  0  0  0  0  0  0  0
   -4.2527   -0.2513    1.1604 H   0  0  0  0  0  0  0  0  0  0  0  0
  2  1  1  6
  2  3  1  0
  3  4  1  0
  4  5  1  0
  5  6  1  0
  6  7  2  0
  7  8  1  0
  8  9  2  0
  9 10  1  0
  9 11  1  0
 11 12  2  0
 12 13  1  0
 13 14  1  0
 14 15  1  0
 15 16  1  0
 16 17  1  0
 17 18  1  0
 18 19  1  0
 19 20  1  0
 16  2  1  0
 19  2  1  0
 15  5  1  0
 12  6  1  0
  1 21  1  0
  1 22  1  0
  1 23  1  0
  3 24  1  0
  3 25  1  0
  4 26  1  0
  4 27  1  0
  5 28  1  1
  7 29  1  0
  8 30  1  0
 10 31  1  0
 11 32  1  0
 13 33  1  0
 13 34  1  0
 14 35  1  0
 14 36  1  0
 15 37  1  1
 16 38  1  1
 17 39  1  0
 17 40  1  0
 18 41  1  0
 18 42  1  0
 19 43  1  6
 20 44  1  0
M  END
