
     RDKit          3D

 44 47  0  0  0  0  0  0  0  0999 V2000
   -1.4994   -1.2443    0.8937 C   0  0  0  0  0  0  0  0  0  0  0  0
   -1.8512    0.1904    0.9854 C   0  0  1  0  0  0  0  0  0  0  0  0
   -1.1300    0.9412    2.0614 C   0  0  0  0  0  0  0  0  0  0  0  0
    0.3362    0.6937    1.7756 C   0  0  0  0  0  0  0  0  0  0  0  0
    0.8035    1.1699    0.4301 C   0  0  1  0  0  0  0  0  0  0  0  0
    2.0331    0.4321    0.0489 C   0  0  0  0  0  0  0  0  0  0  0  0
    2.9012   -0.0764    1.0226 C   0  0  0  0  0  0  0  0  0  0  0  0
    4.0433   -0.7561    0.6653 C   0  0  0  0  0  0  0  0  0  0  0  0
    4.3836   -0.9666   -0.6635 C   0  0  0  0  0  0  0  0  0  0  0  0
    5.5522   -1.6617   -0.9824 O   0  0  0  0  0  0  0  0  0  0  0  0
    3.5405   -0.4729   -1.6216 C   0  0  0  0  0  0  0  0  0  0  0  0
    2.4004    0.2055   -1.2498 C   0  0  0  0  0  0  0  0  0  0  0  0
    1.5106    0.7191   -2.3302 C   0  0  0  0  0  0  0  0  0  0  0  0
    0.0969    0.3516   -1.8552 C   0  0  0  0  0  0  0  0  0  0  0  0
   -0.2038    1.2140   -0.6395 C   0  0  1  0  0  0  0  0  0  0  0  0
   -1.6160    0.9904   -0.2753 C   0  0  1  0  0  0  0  0  0  0  0  0
   -2.4643    0.2394   -1.2355 C   0  0  0  0  0  0  0  0  0  0  0  0
   -3.7184   -0.0378   -0.4083 C   0  0  0  0  0  0  0  0  0  0  0  0
   -3.3574    0.3031    1.0454 C   0  0  1  0  0  0  0  0  0  0  0  0
   -3.9162   -0.6198    1.9204 O   0  0  0  0  0  0  0  0  0  0  0  0
   -0.5185   -1.4975    0.5073 H   0  0  0  0  0  0  0  0  0  0  0  0
   -1.6196   -1.6832    1.9132 H   0  0  0  0  0  0  0  0  0  0  0  0
   -2.2578   -1.7685    0.2623 H   0  0  0  0  0  0  0  0  0  0  0  0
   -1.3309    0.6094    3.0767 H   0  0  0  0  0  0  0  0  0  0  0  0
   -1.3764    2.0295    1.9162 H   0  0  0  0  0  0  0  0  0  0  0  0
    0.4827   -0.4075    1.9057 H   0  0  0  0  0  0  0  0  0  0  0  0
    0.8898    1.1917    2.6257 H   0  0  0  0  0  0  0  0  0  0  0  0
    1.2016    2.2145    0.6485 H   0  0  0  0  0  0  0  0  0  0  0  0
    2.7046    0.0470    2.0752 H   0  0  0  0  0  0  0  0  0  0  0  0
    4.7062   -1.1442    1.4385 H   0  0  0  0  0  0  0  0  0  0  0  0
    6.4094   -1.1356   -1.0974 H   0  0  0  0  0  0  0  0  0  0  0  0
    3.7848   -0.6247   -2.6630 H   0  0  0  0  0  0  0  0  0  0  0  0
    1.6376    1.8203   -2.3644 H   0  0  0  0  0  0  0  0  0  0  0  0
    1.6848    0.2480   -3.2980 H   0  0  0  0  0  0  0  0  0  0  0  0
   -0.5839    0.6813   -2.6607 H   0  0  0  0  0  0  0  0  0  0  0  0
    0.0829   -0.7167   -1.6709 H   0  0  0  0  0  0  0  0  0  0  0  0
   -0.1722    2.2581   -1.0965 H   0  0  0  0  0  0  0  0  0  0  0  0
   -2.1516    1.9714   -0.0842 H   0  0  0  0  0  0  0  0  0  0  0  0
   -2.7218    0.8121   -2.1514 H   0  0  0  0  0  0  0  0  0  0  0  0
   -2.0278   -0.7526   -1.4888 H   0  0  0  0  0  0  0  0  0  0  0  0
   -4.0355   -1.0916   -0.4753 H   0  0  0  0  0  0  0  0  0  0  0  0
   -4.5063    0.6317   -0.7852 H   0  0  0  0  0  0  0  0  0  0  0  0
   -3.7150    1.3195    1.2435 H   0  0  0  0  0  0  0  0  0  0  0  0
   -4.4119   -0.1735    2.6355 H   0  0  0  0  0  0  0  0  0  0  0  0
  2  1  1  6
  2  3  1  0
  3  4  1  0
  4  5  1  0
  5  6  1  0
  6  7  2  0
  7  8  1  0
  8  9  2  0
  9 10  1  0
  9 11  1  0
 11 12  2  0
 12 13  1  0
 13 14  1  0
 14 15  1  0
 15 16  1  0
 16 17  1  0
 17 18  1  0
 18 19  1  0
 19 20  1  0
 16  2  1  0
 19  2  1  0
 15  5  1  0
 12  6  1  0
  1 21  1  0
  1 22  1  0
  1 23  1  0
  3 24  1  0
  3 25  1  0
  4 26  1  0
  4 27  1  0
  5 28  1  1
  7 29  1  0
  8 30  1  0
 10 31  1  0
 11 32  1  0
 13 33  1  0
 13 34  1  0
 14 35  1  0
 14 36  1  0
 15 37  1  6
 16 38  1  1
 17 39  1  0
 17 40  1  0
 18 41  1  0
 18 42  1  0
 19 43  1  1
 20 44  1  0
M  END
