
     RDKit          3D

 44 47  0  0  0  0  0  0  0  0999 V2000
   -2.8059   -0.8117    1.1556 C   0  0  0  0  0  0  0  0  0  0  0  0
   -1.9061    0.2571    0.6506 C   0  0  1  0  0  0  0  0  0  0  0  0
   -0.8465    0.6818    1.6325 C   0  0  0  0  0  0  0  0  0  0  0  0
   -0.1190   -0.6135    1.9871 C   0  0  0  0  0  0  0  0  0  0  0  0
    0.6579   -1.1091    0.8123 C   0  0  2  0  0  0  0  0  0  0  0  0
    1.8481   -0.2806    0.5591 C   0  0  0  0  0  0  0  0  0  0  0  0
    2.3213    0.6713    1.4145 C   0  0  0  0  0  0  0  0  0  0  0  0
    3.4334    1.3988    1.1054 C   0  0  0  0  0  0  0  0  0  0  0  0
    4.1271    1.2091   -0.0759 C   0  0  0  0  0  0  0  0  0  0  0  0
    5.2618    1.9592   -0.3792 O   0  0  0  0  0  0  0  0  0  0  0  0
    3.6535    0.2505   -0.9410 C   0  0  0  0  0  0  0  0  0  0  0  0
    2.5251   -0.4902   -0.6314 C   0  0  0  0  0  0  0  0  0  0  0  0
    2.0099   -1.5148   -1.5406 C   0  0  0  0  0  0  0  0  0  0  0  0
    0.5249   -1.5782   -1.6506 C   0  0  0  0  0  0  0  0  0  0  0  0
   -0.2220   -1.2962   -0.3873 C   0  0  2  0  0  0  0  0  0  0  0  0
   -1.1360   -0.1559   -0.6121 C   0  0  1  0  0  0  0  0  0  0  0  0
   -2.2720   -0.3896   -1.5351 C   0  0  0  0  0  0  0  0  0  0  0  0
   -3.2032    0.7756   -1.2349 C   0  0  0  0  0  0  0  0  0  0  0  0
   -2.7207    1.3710    0.0921 C   0  0  2  0  0  0  0  0  0  0  0  0
   -2.0203    2.5397   -0.1329 O   0  0  0  0  0  0  0  0  0  0  0  0
   -2.8903   -0.6829    2.2693 H   0  0  0  0  0  0  0  0  0  0  0  0
   -2.5097   -1.8366    0.9485 H   0  0  0  0  0  0  0  0  0  0  0  0
   -3.8566   -0.6501    0.7846 H   0  0  0  0  0  0  0  0  0  0  0  0
   -0.1352    1.3337    1.0464 H   0  0  0  0  0  0  0  0  0  0  0  0
   -1.2361    1.1735    2.5208 H   0  0  0  0  0  0  0  0  0  0  0  0
    0.4477   -0.5342    2.9087 H   0  0  0  0  0  0  0  0  0  0  0  0
   -0.9254   -1.3809    2.1836 H   0  0  0  0  0  0  0  0  0  0  0  0
    1.0129   -2.1472    1.0912 H   0  0  0  0  0  0  0  0  0  0  0  0
    1.8247    0.8561    2.3371 H   0  0  0  0  0  0  0  0  0  0  0  0
    3.7927    2.1576    1.8102 H   0  0  0  0  0  0  0  0  0  0  0  0
    5.5669    2.6489    0.2890 H   0  0  0  0  0  0  0  0  0  0  0  0
    4.1929    0.0974   -1.8681 H   0  0  0  0  0  0  0  0  0  0  0  0
    2.4395   -1.2983   -2.5618 H   0  0  0  0  0  0  0  0  0  0  0  0
    2.4392   -2.4997   -1.2614 H   0  0  0  0  0  0  0  0  0  0  0  0
    0.2294   -0.8661   -2.4766 H   0  0  0  0  0  0  0  0  0  0  0  0
    0.2765   -2.5912   -2.0867 H   0  0  0  0  0  0  0  0  0  0  0  0
   -0.8519   -2.2039   -0.1766 H   0  0  0  0  0  0  0  0  0  0  0  0
   -0.5913    0.7541   -0.9440 H   0  0  0  0  0  0  0  0  0  0  0  0
   -2.0082   -0.4304   -2.6044 H   0  0  0  0  0  0  0  0  0  0  0  0
   -2.8088   -1.3261   -1.2351 H   0  0  0  0  0  0  0  0  0  0  0  0
   -4.2442    0.4126   -1.1365 H   0  0  0  0  0  0  0  0  0  0  0  0
   -3.0969    1.5217   -2.0254 H   0  0  0  0  0  0  0  0  0  0  0  0
   -3.6223    1.5563    0.7082 H   0  0  0  0  0  0  0  0  0  0  0  0
   -2.5570    3.0613   -0.8089 H   0  0  0  0  0  0  0  0  0  0  0  0
  2  1  1  1
  2  3  1  0
  3  4  1  0
  4  5  1  0
  5  6  1  0
  6  7  2  0
  7  8  1  0
  8  9  2  0
  9 10  1  0
  9 11  1  0
 11 12  2  0
 12 13  1  0
 13 14  1  0
 14 15  1  0
 15 16  1  0
 16 17  1  0
 17 18  1  0
 18 19  1  0
 19 20  1  0
 16  2  1  0
 19  2  1  0
 15  5  1  0
 12  6  1  0
  1 21  1  0
  1 22  1  0
  1 23  1  0
  3 24  1  0
  3 25  1  0
  4 26  1  0
  4 27  1  0
  5 28  1  1
  7 29  1  0
  8 30  1  0
 10 31  1  0
 11 32  1  0
 13 33  1  0
 13 34  1  0
 14 35  1  0
 14 36  1  0
 15 37  1  1
 16 38  1  6
 17 39  1  0
 17 40  1  0
 18 41  1  0
 18 42  1  0
 19 43  1  1
 20 44  1  0
M  END
