
     RDKit          3D

 44 47  0  0  0  0  0  0  0  0999 V2000
   -2.2767    1.3598   -1.1057 C   0  0  0  0  0  0  0  0  0  0  0  0
   -2.1026    0.6182    0.1608 C   0  0  2  0  0  0  0  0  0  0  0  0
   -1.3370    1.3495    1.2285 C   0  0  0  0  0  0  0  0  0  0  0  0
    0.1376    1.3122    1.0265 C   0  0  0  0  0  0  0  0  0  0  0  0
    0.6614   -0.0967    0.8801 C   0  0  2  0  0  0  0  0  0  0  0  0
    2.0891   -0.1827    0.6939 C   0  0  0  0  0  0  0  0  0  0  0  0
    2.9299   -0.1217    1.7871 C   0  0  0  0  0  0  0  0  0  0  0  0
    4.3181   -0.2018    1.6276 C   0  0  0  0  0  0  0  0  0  0  0  0
    4.8547   -0.3430    0.3684 C   0  0  0  0  0  0  0  0  0  0  0  0
    6.2573   -0.4253    0.1932 O   0  0  0  0  0  0  0  0  0  0  0  0
    4.0284   -0.4040   -0.7161 C   0  0  0  0  0  0  0  0  0  0  0  0
    2.6549   -0.3224   -0.5330 C   0  0  0  0  0  0  0  0  0  0  0  0
    1.8468   -0.3993   -1.7656 C   0  0  0  0  0  0  0  0  0  0  0  0
    0.3784   -0.1522   -1.5804 C   0  0  0  0  0  0  0  0  0  0  0  0
   -0.0528   -0.7621   -0.2883 C   0  0  2  0  0  0  0  0  0  0  0  0
   -1.4759   -0.7431    0.0305 C   0  0  2  0  0  0  0  0  0  0  0  0
   -2.4210   -1.4567   -0.8473 C   0  0  0  0  0  0  0  0  0  0  0  0
   -3.7745   -1.0041   -0.3030 C   0  0  0  0  0  0  0  0  0  0  0  0
   -3.4854    0.1764    0.6283 C   0  0  2  0  0  0  0  0  0  0  0  0
   -4.4289    1.1563    0.3296 O   0  0  0  0  0  0  0  0  0  0  0  0
   -3.3434    1.7200   -1.2279 H   0  0  0  0  0  0  0  0  0  0  0  0
   -1.6837    2.3219   -1.1387 H   0  0  0  0  0  0  0  0  0  0  0  0
   -2.1007    0.7514   -2.0309 H   0  0  0  0  0  0  0  0  0  0  0  0
   -1.6180    0.9557    2.2443 H   0  0  0  0  0  0  0  0  0  0  0  0
   -1.6852    2.4019    1.2172 H   0  0  0  0  0  0  0  0  0  0  0  0
    0.4467    1.9833    0.2121 H   0  0  0  0  0  0  0  0  0  0  0  0
    0.6101    1.7318    1.9587 H   0  0  0  0  0  0  0  0  0  0  0  0
    0.2876   -0.6494    1.7920 H   0  0  0  0  0  0  0  0  0  0  0  0
    2.5752   -0.0115    2.8024 H   0  0  0  0  0  0  0  0  0  0  0  0
    4.9876   -0.1553    2.4752 H   0  0  0  0  0  0  0  0  0  0  0  0
    6.7086   -1.3378    0.2129 H   0  0  0  0  0  0  0  0  0  0  0  0
    4.4650   -0.5157   -1.7059 H   0  0  0  0  0  0  0  0  0  0  0  0
    2.3100    0.3589   -2.4677 H   0  0  0  0  0  0  0  0  0  0  0  0
    2.0413   -1.3728   -2.2984 H   0  0  0  0  0  0  0  0  0  0  0  0
   -0.1617   -0.6347   -2.3983 H   0  0  0  0  0  0  0  0  0  0  0  0
    0.2399    0.9505   -1.5486 H   0  0  0  0  0  0  0  0  0  0  0  0
    0.2995   -1.8246   -0.2799 H   0  0  0  0  0  0  0  0  0  0  0  0
   -1.5895   -1.2098    1.0587 H   0  0  0  0  0  0  0  0  0  0  0  0
   -2.3452   -2.5594   -0.6187 H   0  0  0  0  0  0  0  0  0  0  0  0
   -2.3151   -1.2862   -1.9175 H   0  0  0  0  0  0  0  0  0  0  0  0
   -4.2382   -1.7819    0.3385 H   0  0  0  0  0  0  0  0  0  0  0  0
   -4.4305   -0.6936   -1.1465 H   0  0  0  0  0  0  0  0  0  0  0  0
   -3.4729   -0.1145    1.6806 H   0  0  0  0  0  0  0  0  0  0  0  0
   -4.7894    1.6147    1.1102 H   0  0  0  0  0  0  0  0  0  0  0  0
  2  1  1  6
  2  3  1  0
  3  4  1  0
  4  5  1  0
  5  6  1  0
  6  7  2  0
  7  8  1  0
  8  9  2  0
  9 10  1  0
  9 11  1  0
 11 12  2  0
 12 13  1  0
 13 14  1  0
 14 15  1  0
 15 16  1  0
 16 17  1  0
 17 18  1  0
 18 19  1  0
 19 20  1  0
 16  2  1  0
 19  2  1  0
 15  5  1  0
 12  6  1  0
  1 21  1  0
  1 22  1  0
  1 23  1  0
  3 24  1  0
  3 25  1  0
  4 26  1  0
  4 27  1  0
  5 28  1  1
  7 29  1  0
  8 30  1  0
 10 31  1  0
 11 32  1  0
 13 33  1  0
 13 34  1  0
 14 35  1  0
 14 36  1  0
 15 37  1  6
 16 38  1  1
 17 39  1  0
 17 40  1  0
 18 41  1  0
 18 42  1  0
 19 43  1  1
 20 44  1  0
M  END
