
     RDKit          3D

 44 47  0  0  0  0  0  0  0  0999 V2000
   -2.3912   -0.8150   -1.2880 C   0  0  0  0  0  0  0  0  0  0  0  0
   -2.1477   -0.3906    0.1074 C   0  0  1  0  0  0  0  0  0  0  0  0
   -1.6299   -1.4794    0.9854 C   0  0  0  0  0  0  0  0  0  0  0  0
   -0.1897   -1.2184    1.4497 C   0  0  0  0  0  0  0  0  0  0  0  0
    0.5693   -0.7654    0.2597 C   0  0  2  0  0  0  0  0  0  0  0  0
    2.0261   -0.6365    0.4450 C   0  0  0  0  0  0  0  0  0  0  0  0
    2.7454   -1.0386    1.5348 C   0  0  0  0  0  0  0  0  0  0  0  0
    4.1327   -0.8505    1.5940 C   0  0  0  0  0  0  0  0  0  0  0  0
    4.7606   -0.2494    0.5273 C   0  0  0  0  0  0  0  0  0  0  0  0
    6.1497   -0.0521    0.5680 O   0  0  0  0  0  0  0  0  0  0  0  0
    4.0671    0.1588   -0.5675 C   0  0  0  0  0  0  0  0  0  0  0  0
    2.6816   -0.0390   -0.6059 C   0  0  0  0  0  0  0  0  0  0  0  0
    1.8842    0.3813   -1.7846 C   0  0  0  0  0  0  0  0  0  0  0  0
    0.5360    0.9638   -1.4626 C   0  0  0  0  0  0  0  0  0  0  0  0
    0.1393    0.6751   -0.0735 C   0  0  1  0  0  0  0  0  0  0  0  0
   -1.2699    0.8165    0.2896 C   0  0  1  0  0  0  0  0  0  0  0  0
   -2.0492    1.8970   -0.3768 C   0  0  0  0  0  0  0  0  0  0  0  0
   -3.4398    1.6492    0.1702 C   0  0  0  0  0  0  0  0  0  0  0  0
   -3.4768    0.1878    0.6215 C   0  0  1  0  0  0  0  0  0  0  0  0
   -4.5572   -0.4028   -0.0390 O   0  0  0  0  0  0  0  0  0  0  0  0
   -1.6936   -1.5208   -1.7267 H   0  0  0  0  0  0  0  0  0  0  0  0
   -2.5060    0.0310   -1.9835 H   0  0  0  0  0  0  0  0  0  0  0  0
   -3.3974   -1.3340   -1.3051 H   0  0  0  0  0  0  0  0  0  0  0  0
   -1.6217   -2.4303    0.4273 H   0  0  0  0  0  0  0  0  0  0  0  0
   -2.2804   -1.6270    1.8951 H   0  0  0  0  0  0  0  0  0  0  0  0
   -0.1487   -0.4473    2.2235 H   0  0  0  0  0  0  0  0  0  0  0  0
    0.2022   -2.2047    1.7930 H   0  0  0  0  0  0  0  0  0  0  0  0
    0.4326   -1.4221   -0.6348 H   0  0  0  0  0  0  0  0  0  0  0  0
    2.2086   -1.5025    2.3408 H   0  0  0  0  0  0  0  0  0  0  0  0
    4.6965   -1.1675    2.4522 H   0  0  0  0  0  0  0  0  0  0  0  0
    6.8142   -0.7108    0.2367 H   0  0  0  0  0  0  0  0  0  0  0  0
    4.5499    0.6310   -1.4090 H   0  0  0  0  0  0  0  0  0  0  0  0
    2.5081    1.0970   -2.3902 H   0  0  0  0  0  0  0  0  0  0  0  0
    1.7729   -0.5019   -2.4832 H   0  0  0  0  0  0  0  0  0  0  0  0
    0.6642    2.0854   -1.5496 H   0  0  0  0  0  0  0  0  0  0  0  0
   -0.1924    0.6104   -2.2256 H   0  0  0  0  0  0  0  0  0  0  0  0
    0.7384    1.3762    0.5857 H   0  0  0  0  0  0  0  0  0  0  0  0
   -1.3231    1.0405    1.4012 H   0  0  0  0  0  0  0  0  0  0  0  0
   -1.6671    2.8951   -0.0114 H   0  0  0  0  0  0  0  0  0  0  0  0
   -1.9946    1.9310   -1.4594 H   0  0  0  0  0  0  0  0  0  0  0  0
   -4.2374    1.8858   -0.5433 H   0  0  0  0  0  0  0  0  0  0  0  0
   -3.6008    2.2557    1.1073 H   0  0  0  0  0  0  0  0  0  0  0  0
   -3.5851    0.0788    1.6971 H   0  0  0  0  0  0  0  0  0  0  0  0
   -4.8799    0.1592   -0.7928 H   0  0  0  0  0  0  0  0  0  0  0  0
  2  1  1  6
  2  3  1  0
  3  4  1  0
  4  5  1  0
  5  6  1  0
  6  7  2  0
  7  8  1  0
  8  9  2  0
  9 10  1  0
  9 11  1  0
 11 12  2  0
 12 13  1  0
 13 14  1  0
 14 15  1  0
 15 16  1  0
 16 17  1  0
 17 18  1  0
 18 19  1  0
 19 20  1  0
 16  2  1  0
 19  2  1  0
 15  5  1  0
 12  6  1  0
  1 21  1  0
  1 22  1  0
  1 23  1  0
  3 24  1  0
  3 25  1  0
  4 26  1  0
  4 27  1  0
  5 28  1  6
  7 29  1  0
  8 30  1  0
 10 31  1  0
 11 32  1  0
 13 33  1  0
 13 34  1  0
 14 35  1  0
 14 36  1  0
 15 37  1  1
 16 38  1  1
 17 39  1  0
 17 40  1  0
 18 41  1  0
 18 42  1  0
 19 43  1  1
 20 44  1  0
M  END
