
     RDKit          3D

 44 47  0  0  0  0  0  0  0  0999 V2000
   -2.4132    1.3802   -0.9729 C   0  0  0  0  0  0  0  0  0  0  0  0
   -2.1870    0.0238   -0.3930 C   0  0  1  0  0  0  0  0  0  0  0  0
   -1.6390   -0.9277   -1.3969 C   0  0  0  0  0  0  0  0  0  0  0  0
   -0.1363   -1.0668   -1.2806 C   0  0  0  0  0  0  0  0  0  0  0  0
    0.5313    0.2051   -0.8164 C   0  0  2  0  0  0  0  0  0  0  0  0
    1.9909   -0.0644   -0.7988 C   0  0  0  0  0  0  0  0  0  0  0  0
    2.7552    0.0940   -1.9631 C   0  0  0  0  0  0  0  0  0  0  0  0
    4.1112   -0.1547   -1.9710 C   0  0  0  0  0  0  0  0  0  0  0  0
    4.7394   -0.5679   -0.8169 C   0  0  0  0  0  0  0  0  0  0  0  0
    6.1030   -0.8170   -0.8292 O   0  0  0  0  0  0  0  0  0  0  0  0
    3.9702   -0.7190    0.3228 C   0  0  0  0  0  0  0  0  0  0  0  0
    2.6261   -0.4763    0.3458 C   0  0  0  0  0  0  0  0  0  0  0  0
    1.8312   -0.6404    1.5740 C   0  0  0  0  0  0  0  0  0  0  0  0
    0.9354    0.5783    1.6580 C   0  0  0  0  0  0  0  0  0  0  0  0
    0.0305    0.7233    0.4760 C   0  0  2  0  0  0  0  0  0  0  0  0
   -1.2603    0.0218    0.8008 C   0  0  1  0  0  0  0  0  0  0  0  0
   -2.0444    0.6268    1.9027 C   0  0  0  0  0  0  0  0  0  0  0  0
   -3.4900    0.4327    1.5133 C   0  0  0  0  0  0  0  0  0  0  0  0
   -3.4795   -0.4327    0.2474 C   0  0  1  0  0  0  0  0  0  0  0  0
   -4.5887   -0.0813   -0.5216 O   0  0  0  0  0  0  0  0  0  0  0  0
   -2.0087    2.2124   -0.4023 H   0  0  0  0  0  0  0  0  0  0  0  0
   -3.5134    1.5712   -1.1428 H   0  0  0  0  0  0  0  0  0  0  0  0
   -1.9805    1.3953   -2.0130 H   0  0  0  0  0  0  0  0  0  0  0  0
   -1.9441   -0.6830   -2.4549 H   0  0  0  0  0  0  0  0  0  0  0  0
   -2.0707   -1.9325   -1.1955 H   0  0  0  0  0  0  0  0  0  0  0  0
    0.1580   -1.9452   -0.6693 H   0  0  0  0  0  0  0  0  0  0  0  0
    0.2430   -1.2663   -2.3069 H   0  0  0  0  0  0  0  0  0  0  0  0
    0.3476    0.9512   -1.6383 H   0  0  0  0  0  0  0  0  0  0  0  0
    2.2607    0.4175   -2.8648 H   0  0  0  0  0  0  0  0  0  0  0  0
    4.7179   -0.0339   -2.8762 H   0  0  0  0  0  0  0  0  0  0  0  0
    6.6849   -0.7195   -1.6262 H   0  0  0  0  0  0  0  0  0  0  0  0
    4.4673   -1.0471    1.2406 H   0  0  0  0  0  0  0  0  0  0  0  0
    2.4530   -0.6305    2.4999 H   0  0  0  0  0  0  0  0  0  0  0  0
    1.2500   -1.5820    1.6003 H   0  0  0  0  0  0  0  0  0  0  0  0
    0.3268    0.5749    2.5854 H   0  0  0  0  0  0  0  0  0  0  0  0
    1.6127    1.4574    1.7034 H   0  0  0  0  0  0  0  0  0  0  0  0
   -0.1581    1.8333    0.3662 H   0  0  0  0  0  0  0  0  0  0  0  0
   -1.0133   -1.0337    1.0210 H   0  0  0  0  0  0  0  0  0  0  0  0
   -1.8714    0.0820    2.8684 H   0  0  0  0  0  0  0  0  0  0  0  0
   -1.8032    1.6928    2.1158 H   0  0  0  0  0  0  0  0  0  0  0  0
   -4.0911   -0.0746    2.2711 H   0  0  0  0  0  0  0  0  0  0  0  0
   -3.8858    1.4462    1.2427 H   0  0  0  0  0  0  0  0  0  0  0  0
   -3.4800   -1.5059    0.4858 H   0  0  0  0  0  0  0  0  0  0  0  0
   -5.0876    0.6822   -0.1632 H   0  0  0  0  0  0  0  0  0  0  0  0
  2  1  1  6
  2  3  1  0
  3  4  1  0
  4  5  1  0
  5  6  1  0
  6  7  2  0
  7  8  1  0
  8  9  2  0
  9 10  1  0
  9 11  1  0
 11 12  2  0
 12 13  1  0
 13 14  1  0
 14 15  1  0
 15 16  1  0
 16 17  1  0
 17 18  1  0
 18 19  1  0
 19 20  1  0
 16  2  1  0
 19  2  1  0
 15  5  1  0
 12  6  1  0
  1 21  1  0
  1 22  1  0
  1 23  1  0
  3 24  1  0
  3 25  1  0
  4 26  1  0
  4 27  1  0
  5 28  1  6
  7 29  1  0
  8 30  1  0
 10 31  1  0
 11 32  1  0
 13 33  1  0
 13 34  1  0
 14 35  1  0
 14 36  1  0
 15 37  1  6
 16 38  1  1
 17 39  1  0
 17 40  1  0
 18 41  1  0
 18 42  1  0
 19 43  1  1
 20 44  1  0
M  END
