
     RDKit          3D

 44 47  0  0  0  0  0  0  0  0999 V2000
   -2.1861   -1.1922   -1.4440 C   0  0  0  0  0  0  0  0  0  0  0  0
   -2.1219    0.0012   -0.5728 C   0  0  2  0  0  0  0  0  0  0  0  0
   -1.4832    1.2002   -1.1525 C   0  0  0  0  0  0  0  0  0  0  0  0
   -0.0413    0.9697   -1.4144 C   0  0  0  0  0  0  0  0  0  0  0  0
    0.5775   -0.1939   -0.7228 C   0  0  1  0  0  0  0  0  0  0  0  0
    2.0665   -0.0634   -0.7077 C   0  0  0  0  0  0  0  0  0  0  0  0
    2.8760   -0.6290   -1.6732 C   0  0  0  0  0  0  0  0  0  0  0  0
    4.2509   -0.5161   -1.6726 C   0  0  0  0  0  0  0  0  0  0  0  0
    4.8237    0.2036   -0.6445 C   0  0  0  0  0  0  0  0  0  0  0  0
    6.2022    0.3309   -0.6223 O   0  0  0  0  0  0  0  0  0  0  0  0
    4.0156    0.7753    0.3302 C   0  0  0  0  0  0  0  0  0  0  0  0
    2.6451    0.6494    0.3093 C   0  0  0  0  0  0  0  0  0  0  0  0
    1.7345    1.2362    1.3216 C   0  0  0  0  0  0  0  0  0  0  0  0
    0.7373    0.2024    1.7676 C   0  0  0  0  0  0  0  0  0  0  0  0
    0.0367   -0.4968    0.6304 C   0  0  1  0  0  0  0  0  0  0  0  0
   -1.4180   -0.2540    0.7624 C   0  0  2  0  0  0  0  0  0  0  0  0
   -2.2429   -1.3196    1.3452 C   0  0  0  0  0  0  0  0  0  0  0  0
   -3.6615   -0.9522    0.9146 C   0  0  0  0  0  0  0  0  0  0  0  0
   -3.5167    0.2505   -0.0173 C   0  0  2  0  0  0  0  0  0  0  0  0
   -4.4491    0.1750   -1.0459 O   0  0  0  0  0  0  0  0  0  0  0  0
   -3.2538   -1.4721   -1.6934 H   0  0  0  0  0  0  0  0  0  0  0  0
   -1.7479   -0.9435   -2.4551 H   0  0  0  0  0  0  0  0  0  0  0  0
   -1.7513   -2.1169   -1.0191 H   0  0  0  0  0  0  0  0  0  0  0  0
   -1.6131    2.0456   -0.4246 H   0  0  0  0  0  0  0  0  0  0  0  0
   -2.0125    1.5407   -2.0746 H   0  0  0  0  0  0  0  0  0  0  0  0
    0.5032    1.9377   -1.2254 H   0  0  0  0  0  0  0  0  0  0  0  0
    0.0753    0.8169   -2.5286 H   0  0  0  0  0  0  0  0  0  0  0  0
    0.3877   -1.0961   -1.3776 H   0  0  0  0  0  0  0  0  0  0  0  0
    2.4285   -1.1969   -2.4850 H   0  0  0  0  0  0  0  0  0  0  0  0
    4.8672   -0.9782   -2.4558 H   0  0  0  0  0  0  0  0  0  0  0  0
    6.6334    0.8608    0.1335 H   0  0  0  0  0  0  0  0  0  0  0  0
    4.4636    1.3373    1.1330 H   0  0  0  0  0  0  0  0  0  0  0  0
    2.3796    1.4577    2.2188 H   0  0  0  0  0  0  0  0  0  0  0  0
    1.2953    2.1916    1.0254 H   0  0  0  0  0  0  0  0  0  0  0  0
    0.0084    0.7455    2.4392 H   0  0  0  0  0  0  0  0  0  0  0  0
    1.2740   -0.4930    2.4480 H   0  0  0  0  0  0  0  0  0  0  0  0
    0.2034   -1.6020    0.8077 H   0  0  0  0  0  0  0  0  0  0  0  0
   -1.5954    0.6934    1.3530 H   0  0  0  0  0  0  0  0  0  0  0  0
   -1.9824   -2.3449    1.0743 H   0  0  0  0  0  0  0  0  0  0  0  0
   -2.1991   -1.2779    2.4730 H   0  0  0  0  0  0  0  0  0  0  0  0
   -4.1378   -1.7955    0.3754 H   0  0  0  0  0  0  0  0  0  0  0  0
   -4.2758   -0.6683    1.7765 H   0  0  0  0  0  0  0  0  0  0  0  0
   -3.5683    1.1963    0.5502 H   0  0  0  0  0  0  0  0  0  0  0  0
   -5.2277    0.7846   -0.8542 H   0  0  0  0  0  0  0  0  0  0  0  0
  2  1  1  6
  2  3  1  0
  3  4  1  0
  4  5  1  0
  5  6  1  0
  6  7  2  0
  7  8  1  0
  8  9  2  0
  9 10  1  0
  9 11  1  0
 11 12  2  0
 12 13  1  0
 13 14  1  0
 14 15  1  0
 15 16  1  0
 16 17  1  0
 17 18  1  0
 18 19  1  0
 19 20  1  0
 16  2  1  0
 19  2  1  0
 15  5  1  0
 12  6  1  0
  1 21  1  0
  1 22  1  0
  1 23  1  0
  3 24  1  0
  3 25  1  0
  4 26  1  0
  4 27  1  0
  5 28  1  6
  7 29  1  0
  8 30  1  0
 10 31  1  0
 11 32  1  0
 13 33  1  0
 13 34  1  0
 14 35  1  0
 14 36  1  0
 15 37  1  1
 16 38  1  1
 17 39  1  0
 17 40  1  0
 18 41  1  0
 18 42  1  0
 19 43  1  1
 20 44  1  0
M  END
