
     RDKit          3D

 44 47  0  0  0  0  0  0  0  0999 V2000
   -1.8965    0.4754    1.8801 C   0  0  0  0  0  0  0  0  0  0  0  0
   -2.1152    0.5776    0.4067 C   0  0  1  0  0  0  0  0  0  0  0  0
   -1.5587    1.8112   -0.2094 C   0  0  0  0  0  0  0  0  0  0  0  0
   -0.0577    1.8214    0.0199 C   0  0  0  0  0  0  0  0  0  0  0  0
    0.5714    0.6241   -0.6300 C   0  0  1  0  0  0  0  0  0  0  0  0
    2.0340    0.5769   -0.4013 C   0  0  0  0  0  0  0  0  0  0  0  0
    2.7808    1.6153    0.0951 C   0  0  0  0  0  0  0  0  0  0  0  0
    4.1401    1.4757    0.2732 C   0  0  0  0  0  0  0  0  0  0  0  0
    4.8080    0.3091   -0.0317 C   0  0  0  0  0  0  0  0  0  0  0  0
    6.1813    0.1667    0.1477 O   0  0  0  0  0  0  0  0  0  0  0  0
    4.0267   -0.7181   -0.5299 C   0  0  0  0  0  0  0  0  0  0  0  0
    2.6740   -0.6000   -0.7146 C   0  0  0  0  0  0  0  0  0  0  0  0
    1.9620   -1.7825   -1.2561 C   0  0  0  0  0  0  0  0  0  0  0  0
    0.4996   -1.7967   -1.0348 C   0  0  0  0  0  0  0  0  0  0  0  0
   -0.0278   -0.6905   -0.1513 C   0  0  2  0  0  0  0  0  0  0  0  0
   -1.4971   -0.6027   -0.3544 C   0  0  1  0  0  0  0  0  0  0  0  0
   -2.2943   -1.7350    0.1774 C   0  0  0  0  0  0  0  0  0  0  0  0
   -3.7074   -1.1625    0.2356 C   0  0  0  0  0  0  0  0  0  0  0  0
   -3.5683    0.3330    0.0954 C   0  0  1  0  0  0  0  0  0  0  0  0
   -4.4261    1.0386    0.9217 O   0  0  0  0  0  0  0  0  0  0  0  0
   -2.1174    1.4731    2.3201 H   0  0  0  0  0  0  0  0  0  0  0  0
   -2.6884   -0.2041    2.2929 H   0  0  0  0  0  0  0  0  0  0  0  0
   -0.8864    0.2065    2.1889 H   0  0  0  0  0  0  0  0  0  0  0  0
   -1.7122    1.7252   -1.3211 H   0  0  0  0  0  0  0  0  0  0  0  0
   -2.0209    2.7425    0.1634 H   0  0  0  0  0  0  0  0  0  0  0  0
    0.1796    1.7807    1.1031 H   0  0  0  0  0  0  0  0  0  0  0  0
    0.4144    2.7157   -0.4400 H   0  0  0  0  0  0  0  0  0  0  0  0
    0.3662    0.6527   -1.7339 H   0  0  0  0  0  0  0  0  0  0  0  0
    2.2765    2.5553    0.3472 H   0  0  0  0  0  0  0  0  0  0  0  0
    4.7325    2.3083    0.6702 H   0  0  0  0  0  0  0  0  0  0  0  0
    6.7606    0.4311   -0.6613 H   0  0  0  0  0  0  0  0  0  0  0  0
    4.5329   -1.6637   -0.7830 H   0  0  0  0  0  0  0  0  0  0  0  0
    2.4568   -2.6906   -0.8558 H   0  0  0  0  0  0  0  0  0  0  0  0
    2.1824   -1.7892   -2.3628 H   0  0  0  0  0  0  0  0  0  0  0  0
   -0.0631   -1.7386   -1.9955 H   0  0  0  0  0  0  0  0  0  0  0  0
    0.2008   -2.7767   -0.5832 H   0  0  0  0  0  0  0  0  0  0  0  0
    0.2709   -0.8712    0.9022 H   0  0  0  0  0  0  0  0  0  0  0  0
   -1.7023   -0.4463   -1.4190 H   0  0  0  0  0  0  0  0  0  0  0  0
   -2.2415   -2.6612   -0.4069 H   0  0  0  0  0  0  0  0  0  0  0  0
   -1.9416   -1.9327    1.2310 H   0  0  0  0  0  0  0  0  0  0  0  0
   -4.2527   -1.6183   -0.6385 H   0  0  0  0  0  0  0  0  0  0  0  0
   -4.2007   -1.4287    1.1994 H   0  0  0  0  0  0  0  0  0  0  0  0
   -3.7325    0.6031   -0.9869 H   0  0  0  0  0  0  0  0  0  0  0  0
   -5.3428    0.8900    0.5786 H   0  0  0  0  0  0  0  0  0  0  0  0
  2  1  1  1
  2  3  1  0
  3  4  1  0
  4  5  1  0
  5  6  1  0
  6  7  2  0
  7  8  1  0
  8  9  2  0
  9 10  1  0
  9 11  1  0
 11 12  2  0
 12 13  1  0
 13 14  1  0
 14 15  1  0
 15 16  1  0
 16 17  1  0
 17 18  1  0
 18 19  1  0
 19 20  1  0
 16  2  1  0
 19  2  1  0
 15  5  1  0
 12  6  1  0
  1 21  1  0
  1 22  1  0
  1 23  1  0
  3 24  1  0
  3 25  1  0
  4 26  1  0
  4 27  1  0
  5 28  1  6
  7 29  1  0
  8 30  1  0
 10 31  1  0
 11 32  1  0
 13 33  1  0
 13 34  1  0
 14 35  1  0
 14 36  1  0
 15 37  1  1
 16 38  1  6
 17 39  1  0
 17 40  1  0
 18 41  1  0
 18 42  1  0
 19 43  1  6
 20 44  1  0
M  END
