
     RDKit          3D

 44 47  0  0  0  0  0  0  0  0999 V2000
   -2.0553    1.0604    1.6700 C   0  0  0  0  0  0  0  0  0  0  0  0
   -2.1447    0.4862    0.2870 C   0  0  1  0  0  0  0  0  0  0  0  0
   -1.5414    1.4523   -0.6917 C   0  0  0  0  0  0  0  0  0  0  0  0
   -0.0674    1.5635   -0.2707 C   0  0  0  0  0  0  0  0  0  0  0  0
    0.5594    0.2586   -0.7106 C   0  0  1  0  0  0  0  0  0  0  0  0
    2.0136    0.2900   -0.4361 C   0  0  0  0  0  0  0  0  0  0  0  0
    2.8112    1.3451   -0.8961 C   0  0  0  0  0  0  0  0  0  0  0  0
    4.1588    1.4228   -0.6714 C   0  0  0  0  0  0  0  0  0  0  0  0
    4.7898    0.4244    0.0419 C   0  0  0  0  0  0  0  0  0  0  0  0
    6.1544    0.4834    0.2810 O   0  0  0  0  0  0  0  0  0  0  0  0
    4.0469   -0.6327    0.5141 C   0  0  0  0  0  0  0  0  0  0  0  0
    2.6824   -0.6842    0.2707 C   0  0  0  0  0  0  0  0  0  0  0  0
    1.9492   -1.8572    0.8144 C   0  0  0  0  0  0  0  0  0  0  0  0
    0.5732   -1.3046    1.2162 C   0  0  0  0  0  0  0  0  0  0  0  0
   -0.0802   -0.9185   -0.1020 C   0  0  1  0  0  0  0  0  0  0  0  0
   -1.5486   -0.8504    0.1180 C   0  0  2  0  0  0  0  0  0  0  0  0
   -2.3018   -1.4240   -1.0665 C   0  0  0  0  0  0  0  0  0  0  0  0
   -3.6459   -0.7577   -1.0792 C   0  0  0  0  0  0  0  0  0  0  0  0
   -3.6196    0.3083   -0.0339 C   0  0  1  0  0  0  0  0  0  0  0  0
   -4.3457   -0.0431    1.0833 O   0  0  0  0  0  0  0  0  0  0  0  0
   -3.0626    1.0901    2.1810 H   0  0  0  0  0  0  0  0  0  0  0  0
   -1.7628    2.1487    1.6132 H   0  0  0  0  0  0  0  0  0  0  0  0
   -1.3470    0.5288    2.3328 H   0  0  0  0  0  0  0  0  0  0  0  0
   -1.9945    2.4489   -0.6690 H   0  0  0  0  0  0  0  0  0  0  0  0
   -1.5542    0.9728   -1.6924 H   0  0  0  0  0  0  0  0  0  0  0  0
    0.0408    1.6203    0.8219 H   0  0  0  0  0  0  0  0  0  0  0  0
    0.3353    2.4206   -0.8119 H   0  0  0  0  0  0  0  0  0  0  0  0
    0.4453    0.2383   -1.8320 H   0  0  0  0  0  0  0  0  0  0  0  0
    2.3429    2.1396   -1.4570 H   0  0  0  0  0  0  0  0  0  0  0  0
    4.7410    2.2552   -1.0438 H   0  0  0  0  0  0  0  0  0  0  0  0
    6.4381    0.9580    1.1332 H   0  0  0  0  0  0  0  0  0  0  0  0
    4.5742   -1.4006    1.0712 H   0  0  0  0  0  0  0  0  0  0  0  0
    1.7561   -2.6154    0.0281 H   0  0  0  0  0  0  0  0  0  0  0  0
    2.4302   -2.2935    1.6976 H   0  0  0  0  0  0  0  0  0  0  0  0
   -0.0193   -2.0729    1.7291 H   0  0  0  0  0  0  0  0  0  0  0  0
    0.8008   -0.4170    1.8455 H   0  0  0  0  0  0  0  0  0  0  0  0
    0.1072   -1.8028   -0.7828 H   0  0  0  0  0  0  0  0  0  0  0  0
   -1.8320   -1.4799    1.0023 H   0  0  0  0  0  0  0  0  0  0  0  0
   -2.4667   -2.5153   -0.9308 H   0  0  0  0  0  0  0  0  0  0  0  0
   -1.7469   -1.2572   -1.9972 H   0  0  0  0  0  0  0  0  0  0  0  0
   -3.8745   -0.3698   -2.0820 H   0  0  0  0  0  0  0  0  0  0  0  0
   -4.4787   -1.4713   -0.8206 H   0  0  0  0  0  0  0  0  0  0  0  0
   -4.0590    1.2388   -0.4496 H   0  0  0  0  0  0  0  0  0  0  0  0
   -4.2021   -0.9869    1.2829 H   0  0  0  0  0  0  0  0  0  0  0  0
  2  1  1  1
  2  3  1  0
  3  4  1  0
  4  5  1  0
  5  6  1  0
  6  7  2  0
  7  8  1  0
  8  9  2  0
  9 10  1  0
  9 11  1  0
 11 12  2  0
 12 13  1  0
 13 14  1  0
 14 15  1  0
 15 16  1  0
 16 17  1  0
 17 18  1  0
 18 19  1  0
 19 20  1  0
 16  2  1  0
 19  2  1  0
 15  5  1  0
 12  6  1  0
  1 21  1  0
  1 22  1  0
  1 23  1  0
  3 24  1  0
  3 25  1  0
  4 26  1  0
  4 27  1  0
  5 28  1  6
  7 29  1  0
  8 30  1  0
 10 31  1  0
 11 32  1  0
 13 33  1  0
 13 34  1  0
 14 35  1  0
 14 36  1  0
 15 37  1  6
 16 38  1  1
 17 39  1  0
 17 40  1  0
 18 41  1  0
 18 42  1  0
 19 43  1  6
 20 44  1  0
M  END
