
     RDKit          3D

 44 47  0  0  0  0  0  0  0  0999 V2000
   -1.6660    0.8675    2.0092 C   0  0  0  0  0  0  0  0  0  0  0  0
   -1.9413   -0.0480    0.8235 C   0  0  2  0  0  0  0  0  0  0  0  0
   -1.5549   -1.4854    1.1453 C   0  0  0  0  0  0  0  0  0  0  0  0
   -0.0468   -1.4844    1.3033 C   0  0  0  0  0  0  0  0  0  0  0  0
    0.6537   -1.1958   -0.0042 C   0  0  2  0  0  0  0  0  0  0  0  0
    1.9431   -0.5563    0.2383 C   0  0  0  0  0  0  0  0  0  0  0  0
    2.7234   -0.9912    1.2859 C   0  0  0  0  0  0  0  0  0  0  0  0
    3.9543   -0.4026    1.5386 C   0  0  0  0  0  0  0  0  0  0  0  0
    4.4370    0.6265    0.7612 C   0  0  0  0  0  0  0  0  0  0  0  0
    5.6897    1.2125    1.0327 O   0  0  0  0  0  0  0  0  0  0  0  0
    3.6577    1.0599   -0.2840 C   0  0  0  0  0  0  0  0  0  0  0  0
    2.4101    0.4570   -0.5332 C   0  0  0  0  0  0  0  0  0  0  0  0
    1.6346    0.9705   -1.6611 C   0  0  0  0  0  0  0  0  0  0  0  0
    0.4714    0.1647   -2.0936 C   0  0  0  0  0  0  0  0  0  0  0  0
   -0.2497   -0.5331   -0.9715 C   0  0  2  0  0  0  0  0  0  0  0  0
   -1.1887    0.4756   -0.3456 C   0  0  1  0  0  0  0  0  0  0  0  0
   -2.1989    0.8497   -1.4115 C   0  0  0  0  0  0  0  0  0  0  0  0
   -3.5610    0.6924   -0.8058 C   0  0  0  0  0  0  0  0  0  0  0  0
   -3.4045    0.0315    0.5259 C   0  0  1  0  0  0  0  0  0  0  0  0
   -3.9760   -1.2528    0.4914 O   0  0  0  0  0  0  0  0  0  0  0  0
   -1.9001    0.3913    2.9645 H   0  0  0  0  0  0  0  0  0  0  0  0
   -0.6488    1.3099    1.9577 H   0  0  0  0  0  0  0  0  0  0  0  0
   -2.3698    1.7345    1.8990 H   0  0  0  0  0  0  0  0  0  0  0  0
   -1.8990   -2.1061    0.3139 H   0  0  0  0  0  0  0  0  0  0  0  0
   -1.9990   -1.7307    2.1146 H   0  0  0  0  0  0  0  0  0  0  0  0
    0.2261   -2.4798    1.7162 H   0  0  0  0  0  0  0  0  0  0  0  0
    0.1914   -0.7404    2.0928 H   0  0  0  0  0  0  0  0  0  0  0  0
    0.8917   -2.2205   -0.4262 H   0  0  0  0  0  0  0  0  0  0  0  0
    2.3753   -1.8011    1.9209 H   0  0  0  0  0  0  0  0  0  0  0  0
    4.5764   -0.7373    2.3605 H   0  0  0  0  0  0  0  0  0  0  0  0
    6.5345    0.8358    0.5948 H   0  0  0  0  0  0  0  0  0  0  0  0
    4.0285    1.8623   -0.8942 H   0  0  0  0  0  0  0  0  0  0  0  0
    1.3793    2.0492   -1.4643 H   0  0  0  0  0  0  0  0  0  0  0  0
    2.3450    1.0296   -2.5387 H   0  0  0  0  0  0  0  0  0  0  0  0
    0.7978   -0.5839   -2.8602 H   0  0  0  0  0  0  0  0  0  0  0  0
   -0.2513    0.8299   -2.6108 H   0  0  0  0  0  0  0  0  0  0  0  0
   -0.8926   -1.3086   -1.4393 H   0  0  0  0  0  0  0  0  0  0  0  0
   -0.6082    1.4069   -0.1218 H   0  0  0  0  0  0  0  0  0  0  0  0
   -2.0569    1.8857   -1.7820 H   0  0  0  0  0  0  0  0  0  0  0  0
   -2.1531    0.1639   -2.2930 H   0  0  0  0  0  0  0  0  0  0  0  0
   -4.0745    1.6687   -0.6894 H   0  0  0  0  0  0  0  0  0  0  0  0
   -4.2502    0.0802   -1.4548 H   0  0  0  0  0  0  0  0  0  0  0  0
   -3.9681    0.5859    1.3181 H   0  0  0  0  0  0  0  0  0  0  0  0
   -4.0617   -1.5837    1.4077 H   0  0  0  0  0  0  0  0  0  0  0  0
  2  1  1  1
  2  3  1  0
  3  4  1  0
  4  5  1  0
  5  6  1  0
  6  7  2  0
  7  8  1  0
  8  9  2  0
  9 10  1  0
  9 11  1  0
 11 12  2  0
 12 13  1  0
 13 14  1  0
 14 15  1  0
 15 16  1  0
 16 17  1  0
 17 18  1  0
 18 19  1  0
 19 20  1  0
 16  2  1  0
 19  2  1  0
 15  5  1  0
 12  6  1  0
  1 21  1  0
  1 22  1  0
  1 23  1  0
  3 24  1  0
  3 25  1  0
  4 26  1  0
  4 27  1  0
  5 28  1  6
  7 29  1  0
  8 30  1  0
 10 31  1  0
 11 32  1  0
 13 33  1  0
 13 34  1  0
 14 35  1  0
 14 36  1  0
 15 37  1  6
 16 38  1  1
 17 39  1  0
 17 40  1  0
 18 41  1  0
 18 42  1  0
 19 43  1  1
 20 44  1  0
M  END
