
     RDKit          3D

 44 47  0  0  0  0  0  0  0  0999 V2000
   -2.4570   -1.8504    1.1094 C   0  0  0  0  0  0  0  0  0  0  0  0
   -2.0470   -0.7761    0.0901 C   0  0  2  0  0  0  0  0  0  0  0  0
   -1.1950   -1.4017   -0.9441 C   0  0  0  0  0  0  0  0  0  0  0  0
    0.2675   -1.2692   -0.7722 C   0  0  0  0  0  0  0  0  0  0  0  0
    0.7073   -0.5342    0.4506 C   0  0  1  0  0  0  0  0  0  0  0  0
    2.1524   -0.2622    0.3411 C   0  0  0  0  0  0  0  0  0  0  0  0
    3.0294   -1.3065    0.5101 C   0  0  0  0  0  0  0  0  0  0  0  0
    4.3681   -1.0732    0.4122 C   0  0  0  0  0  0  0  0  0  0  0  0
    4.8504    0.1907    0.1473 C   0  0  0  0  0  0  0  0  0  0  0  0
    6.2244    0.3899    0.0547 O   0  0  0  0  0  0  0  0  0  0  0  0
    3.9571    1.2266   -0.0194 C   0  0  0  0  0  0  0  0  0  0  0  0
    2.6172    1.0087    0.0755 C   0  0  0  0  0  0  0  0  0  0  0  0
    1.7064    2.1649   -0.1139 C   0  0  0  0  0  0  0  0  0  0  0  0
    0.2792    1.7038   -0.4286 C   0  0  0  0  0  0  0  0  0  0  0  0
   -0.0963    0.7220    0.6519 C   0  0  1  0  0  0  0  0  0  0  0  0
   -1.5345    0.4344    0.7625 C   0  0  1  0  0  0  0  0  0  0  0  0
   -2.4278    1.5969    0.3057 C   0  0  0  0  0  0  0  0  0  0  0  0
   -3.7727    0.8564    0.2198 C   0  0  0  0  0  0  0  0  0  0  0  0
   -3.3417   -0.3467   -0.5837 C   0  0  2  0  0  0  0  0  0  0  0  0
   -4.2818   -1.3642   -0.5699 O   0  0  0  0  0  0  0  0  0  0  0  0
   -3.4148   -2.3069    0.8673 H   0  0  0  0  0  0  0  0  0  0  0  0
   -2.5582   -1.3340    2.0906 H   0  0  0  0  0  0  0  0  0  0  0  0
   -1.6569   -2.6014    1.2197 H   0  0  0  0  0  0  0  0  0  0  0  0
   -1.4644   -1.0255   -1.9755 H   0  0  0  0  0  0  0  0  0  0  0  0
   -1.4438   -2.4983   -0.9905 H   0  0  0  0  0  0  0  0  0  0  0  0
    0.7496   -0.7498   -1.6527 H   0  0  0  0  0  0  0  0  0  0  0  0
    0.7864   -2.2736   -0.7496 H   0  0  0  0  0  0  0  0  0  0  0  0
    0.5444   -1.1783    1.3393 H   0  0  0  0  0  0  0  0  0  0  0  0
    2.6215   -2.3074    0.7209 H   0  0  0  0  0  0  0  0  0  0  0  0
    5.0346   -1.9186    0.5507 H   0  0  0  0  0  0  0  0  0  0  0  0
    6.8601   -0.3839    0.1805 H   0  0  0  0  0  0  0  0  0  0  0  0
    4.3784    2.2187   -0.2290 H   0  0  0  0  0  0  0  0  0  0  0  0
    2.0628    2.8920   -0.8503 H   0  0  0  0  0  0  0  0  0  0  0  0
    1.6437    2.6827    0.8753 H   0  0  0  0  0  0  0  0  0  0  0  0
    0.2614    1.2929   -1.4372 H   0  0  0  0  0  0  0  0  0  0  0  0
   -0.3359    2.6459   -0.3332 H   0  0  0  0  0  0  0  0  0  0  0  0
    0.2988    1.1783    1.6095 H   0  0  0  0  0  0  0  0  0  0  0  0
   -1.7807    0.3464    1.8646 H   0  0  0  0  0  0  0  0  0  0  0  0
   -2.1995    1.9126   -0.7184 H   0  0  0  0  0  0  0  0  0  0  0  0
   -2.4916    2.3893    1.0475 H   0  0  0  0  0  0  0  0  0  0  0  0
   -4.0918    0.5098    1.2030 H   0  0  0  0  0  0  0  0  0  0  0  0
   -4.5263    1.4686   -0.3196 H   0  0  0  0  0  0  0  0  0  0  0  0
   -3.0749   -0.0396   -1.6239 H   0  0  0  0  0  0  0  0  0  0  0  0
   -5.2083   -1.0300   -0.5183 H   0  0  0  0  0  0  0  0  0  0  0  0
  2  1  1  1
  2  3  1  0
  3  4  1  0
  4  5  1  0
  5  6  1  0
  6  7  2  0
  7  8  1  0
  8  9  2  0
  9 10  1  0
  9 11  1  0
 11 12  2  0
 12 13  1  0
 13 14  1  0
 14 15  1  0
 15 16  1  0
 16 17  1  0
 17 18  1  0
 18 19  1  0
 19 20  1  0
 16  2  1  0
 19  2  1  0
 15  5  1  0
 12  6  1  0
  1 21  1  0
  1 22  1  0
  1 23  1  0
  3 24  1  0
  3 25  1  0
  4 26  1  0
  4 27  1  0
  5 28  1  1
  7 29  1  0
  8 30  1  0
 10 31  1  0
 11 32  1  0
 13 33  1  0
 13 34  1  0
 14 35  1  0
 14 36  1  0
 15 37  1  1
 16 38  1  1
 17 39  1  0
 17 40  1  0
 18 41  1  0
 18 42  1  0
 19 43  1  6
 20 44  1  0
M  END
