
     RDKit          3D

 44 47  0  0  0  0  0  0  0  0999 V2000
   -2.3469   -1.6699    0.8649 C   0  0  0  0  0  0  0  0  0  0  0  0
   -2.1259   -0.1994    0.5029 C   0  0  1  0  0  0  0  0  0  0  0  0
   -1.5717    0.5141    1.6706 C   0  0  0  0  0  0  0  0  0  0  0  0
   -0.0929    0.4811    1.8198 C   0  0  0  0  0  0  0  0  0  0  0  0
    0.5173   -0.2015    0.6182 C   0  0  2  0  0  0  0  0  0  0  0  0
    1.9724   -0.1731    0.6106 C   0  0  0  0  0  0  0  0  0  0  0  0
    2.7527    0.1809    1.6961 C   0  0  0  0  0  0  0  0  0  0  0  0
    4.1290    0.1718    1.6076 C   0  0  0  0  0  0  0  0  0  0  0  0
    4.7632   -0.1894    0.4383 C   0  0  0  0  0  0  0  0  0  0  0  0
    6.1461   -0.2020    0.3394 O   0  0  0  0  0  0  0  0  0  0  0  0
    3.9913   -0.5496   -0.6675 C   0  0  0  0  0  0  0  0  0  0  0  0
    2.6270   -0.5298   -0.5466 C   0  0  0  0  0  0  0  0  0  0  0  0
    1.7126   -0.8925   -1.6932 C   0  0  0  0  0  0  0  0  0  0  0  0
    0.8106    0.3415   -1.8300 C   0  0  0  0  0  0  0  0  0  0  0  0
   -0.0257    0.5140   -0.5869 C   0  0  1  0  0  0  0  0  0  0  0  0
   -1.4293   -0.0270   -0.7830 C   0  0  2  0  0  0  0  0  0  0  0  0
   -2.2413    0.8663   -1.6735 C   0  0  0  0  0  0  0  0  0  0  0  0
   -3.3607    1.4010   -0.8383 C   0  0  0  0  0  0  0  0  0  0  0  0
   -3.5250    0.3748    0.2390 C   0  0  1  0  0  0  0  0  0  0  0  0
   -4.3785   -0.6356   -0.1972 O   0  0  0  0  0  0  0  0  0  0  0  0
   -2.1032   -2.3114    0.0054 H   0  0  0  0  0  0  0  0  0  0  0  0
   -3.4064   -1.8733    1.1233 H   0  0  0  0  0  0  0  0  0  0  0  0
   -1.7648   -1.9402    1.7856 H   0  0  0  0  0  0  0  0  0  0  0  0
   -1.9876    1.5637    1.6843 H   0  0  0  0  0  0  0  0  0  0  0  0
   -2.0110    0.0475    2.6009 H   0  0  0  0  0  0  0  0  0  0  0  0
    0.2519    0.0436    2.7744 H   0  0  0  0  0  0  0  0  0  0  0  0
    0.2821    1.5318    1.8067 H   0  0  0  0  0  0  0  0  0  0  0  0
    0.2042   -1.2825    0.5819 H   0  0  0  0  0  0  0  0  0  0  0  0
    2.2426    0.4612    2.6043 H   0  0  0  0  0  0  0  0  0  0  0  0
    4.7591    0.4498    2.4594 H   0  0  0  0  0  0  0  0  0  0  0  0
    6.5948   -0.4653   -0.5126 H   0  0  0  0  0  0  0  0  0  0  0  0
    4.4565   -0.8382   -1.6001 H   0  0  0  0  0  0  0  0  0  0  0  0
    1.1436   -1.8010   -1.4912 H   0  0  0  0  0  0  0  0  0  0  0  0
    2.2901   -0.9446   -2.6376 H   0  0  0  0  0  0  0  0  0  0  0  0
    0.2106    0.3210   -2.7370 H   0  0  0  0  0  0  0  0  0  0  0  0
    1.5037    1.2069   -1.8864 H   0  0  0  0  0  0  0  0  0  0  0  0
   -0.1292    1.6137   -0.3859 H   0  0  0  0  0  0  0  0  0  0  0  0
   -1.2934   -1.0456   -1.2507 H   0  0  0  0  0  0  0  0  0  0  0  0
   -1.6277    1.6893   -2.0937 H   0  0  0  0  0  0  0  0  0  0  0  0
   -2.5966    0.2684   -2.5429 H   0  0  0  0  0  0  0  0  0  0  0  0
   -3.1696    2.4165   -0.4837 H   0  0  0  0  0  0  0  0  0  0  0  0
   -4.2829    1.3942   -1.4869 H   0  0  0  0  0  0  0  0  0  0  0  0
   -3.9126    0.8924    1.1427 H   0  0  0  0  0  0  0  0  0  0  0  0
   -3.9787   -0.9740   -1.0514 H   0  0  0  0  0  0  0  0  0  0  0  0
  2  1  1  1
  2  3  1  0
  3  4  1  0
  4  5  1  0
  5  6  1  0
  6  7  2  0
  7  8  1  0
  8  9  2  0
  9 10  1  0
  9 11  1  0
 11 12  2  0
 12 13  1  0
 13 14  1  0
 14 15  1  0
 15 16  1  0
 16 17  1  0
 17 18  1  0
 18 19  1  0
 19 20  1  0
 16  2  1  0
 19  2  1  0
 15  5  1  0
 12  6  1  0
  1 21  1  0
  1 22  1  0
  1 23  1  0
  3 24  1  0
  3 25  1  0
  4 26  1  0
  4 27  1  0
  5 28  1  6
  7 29  1  0
  8 30  1  0
 10 31  1  0
 11 32  1  0
 13 33  1  0
 13 34  1  0
 14 35  1  0
 14 36  1  0
 15 37  1  1
 16 38  1  6
 17 39  1  0
 17 40  1  0
 18 41  1  0
 18 42  1  0
 19 43  1  1
 20 44  1  0
M  END
