
     RDKit          3D

 44 47  0  0  0  0  0  0  0  0999 V2000
   -2.3290   -0.4657    1.9572 C   0  0  0  0  0  0  0  0  0  0  0  0
   -2.2384   -0.1986    0.4748 C   0  0  2  0  0  0  0  0  0  0  0  0
   -1.8186   -1.3928   -0.3115 C   0  0  0  0  0  0  0  0  0  0  0  0
   -0.3806   -1.7621   -0.1733 C   0  0  0  0  0  0  0  0  0  0  0  0
    0.4656   -0.5704   -0.4609 C   0  0  2  0  0  0  0  0  0  0  0  0
    1.9095   -0.8053   -0.2702 C   0  0  0  0  0  0  0  0  0  0  0  0
    2.4701   -1.9863    0.1676 C   0  0  0  0  0  0  0  0  0  0  0  0
    3.8378   -2.1226    0.3204 C   0  0  0  0  0  0  0  0  0  0  0  0
    4.6841   -1.0669    0.0348 C   0  0  0  0  0  0  0  0  0  0  0  0
    6.0709   -1.1881    0.1840 O   0  0  0  0  0  0  0  0  0  0  0  0
    4.1170    0.1295   -0.4087 C   0  0  0  0  0  0  0  0  0  0  0  0
    2.7473    0.2488   -0.5560 C   0  0  0  0  0  0  0  0  0  0  0  0
    2.0992    1.4980   -1.0246 C   0  0  0  0  0  0  0  0  0  0  0  0
    0.9346    1.8251   -0.1270 C   0  0  0  0  0  0  0  0  0  0  0  0
    0.0988    0.6639    0.2878 C   0  0  1  0  0  0  0  0  0  0  0  0
   -1.3640    0.9968    0.2509 C   0  0  1  0  0  0  0  0  0  0  0  0
   -1.8403    1.5260   -1.0612 C   0  0  0  0  0  0  0  0  0  0  0  0
   -3.3591    1.4686   -0.8869 C   0  0  0  0  0  0  0  0  0  0  0  0
   -3.5889    0.2546   -0.0486 C   0  0  2  0  0  0  0  0  0  0  0  0
   -4.5041    0.4460    0.9730 O   0  0  0  0  0  0  0  0  0  0  0  0
   -3.3043   -0.9524    2.1606 H   0  0  0  0  0  0  0  0  0  0  0  0
   -2.2410    0.5192    2.4658 H   0  0  0  0  0  0  0  0  0  0  0  0
   -1.4906   -1.1320    2.2934 H   0  0  0  0  0  0  0  0  0  0  0  0
   -2.1139   -1.2843   -1.3760 H   0  0  0  0  0  0  0  0  0  0  0  0
   -2.4218   -2.2670    0.0726 H   0  0  0  0  0  0  0  0  0  0  0  0
   -0.2240   -2.2170    0.8079 H   0  0  0  0  0  0  0  0  0  0  0  0
   -0.1516   -2.5380   -0.9365 H   0  0  0  0  0  0  0  0  0  0  0  0
    0.3341   -0.3359   -1.5591 H   0  0  0  0  0  0  0  0  0  0  0  0
    1.8596   -2.8435    0.4056 H   0  0  0  0  0  0  0  0  0  0  0  0
    4.3086   -3.0326    0.6608 H   0  0  0  0  0  0  0  0  0  0  0  0
    6.4495   -0.9351    1.1080 H   0  0  0  0  0  0  0  0  0  0  0  0
    4.7545    0.9634   -0.6368 H   0  0  0  0  0  0  0  0  0  0  0  0
    1.8106    1.4444   -2.0933 H   0  0  0  0  0  0  0  0  0  0  0  0
    2.8199    2.3536   -0.9611 H   0  0  0  0  0  0  0  0  0  0  0  0
    1.3768    2.3602    0.7658 H   0  0  0  0  0  0  0  0  0  0  0  0
    0.3540    2.6216   -0.6497 H   0  0  0  0  0  0  0  0  0  0  0  0
    0.3382    0.4589    1.3752 H   0  0  0  0  0  0  0  0  0  0  0  0
   -1.5623    1.7601    1.0284 H   0  0  0  0  0  0  0  0  0  0  0  0
   -1.6086    0.8367   -1.8992 H   0  0  0  0  0  0  0  0  0  0  0  0
   -1.5921    2.5732   -1.2595 H   0  0  0  0  0  0  0  0  0  0  0  0
   -3.8794    1.4385   -1.8611 H   0  0  0  0  0  0  0  0  0  0  0  0
   -3.6579    2.3598   -0.2816 H   0  0  0  0  0  0  0  0  0  0  0  0
   -4.0434   -0.5261   -0.7258 H   0  0  0  0  0  0  0  0  0  0  0  0
   -4.1268    0.8760    1.7738 H   0  0  0  0  0  0  0  0  0  0  0  0
  2  1  1  1
  2  3  1  0
  3  4  1  0
  4  5  1  0
  5  6  1  0
  6  7  2  0
  7  8  1  0
  8  9  2  0
  9 10  1  0
  9 11  1  0
 11 12  2  0
 12 13  1  0
 13 14  1  0
 14 15  1  0
 15 16  1  0
 16 17  1  0
 17 18  1  0
 18 19  1  0
 19 20  1  0
 16  2  1  0
 19  2  1  0
 15  5  1  0
 12  6  1  0
  1 21  1  0
  1 22  1  0
  1 23  1  0
  3 24  1  0
  3 25  1  0
  4 26  1  0
  4 27  1  0
  5 28  1  6
  7 29  1  0
  8 30  1  0
 10 31  1  0
 11 32  1  0
 13 33  1  0
 13 34  1  0
 14 35  1  0
 14 36  1  0
 15 37  1  1
 16 38  1  1
 17 39  1  0
 17 40  1  0
 18 41  1  0
 18 42  1  0
 19 43  1  6
 20 44  1  0
M  END
