
     RDKit          3D

 44 47  0  0  0  0  0  0  0  0999 V2000
   -1.9471   -1.5135    0.5640 C   0  0  0  0  0  0  0  0  0  0  0  0
   -2.1009   -0.5160   -0.5536 C   0  0  2  0  0  0  0  0  0  0  0  0
   -1.4607   -1.0183   -1.7990 C   0  0  0  0  0  0  0  0  0  0  0  0
    0.0100   -1.2382   -1.5354 C   0  0  0  0  0  0  0  0  0  0  0  0
    0.6581   -0.0047   -1.0019 C   0  0  2  0  0  0  0  0  0  0  0  0
    2.0605   -0.2287   -0.5891 C   0  0  0  0  0  0  0  0  0  0  0  0
    2.7837   -1.2387   -1.2194 C   0  0  0  0  0  0  0  0  0  0  0  0
    4.0995   -1.5034   -0.8835 C   0  0  0  0  0  0  0  0  0  0  0  0
    4.6537   -0.7171    0.1043 C   0  0  0  0  0  0  0  0  0  0  0  0
    5.9886   -0.9517    0.4770 O   0  0  0  0  0  0  0  0  0  0  0  0
    3.9482    0.2841    0.7342 C   0  0  0  0  0  0  0  0  0  0  0  0
    2.6221    0.5488    0.3937 C   0  0  0  0  0  0  0  0  0  0  0  0
    1.9153    1.6442    1.1124 C   0  0  0  0  0  0  0  0  0  0  0  0
    0.6284    1.9762    0.3904 C   0  0  0  0  0  0  0  0  0  0  0  0
   -0.0664    0.6268    0.1676 C   0  0  1  0  0  0  0  0  0  0  0  0
   -1.4645    0.8150   -0.2453 C   0  0  2  0  0  0  0  0  0  0  0  0
   -2.3954    1.4002    0.7614 C   0  0  0  0  0  0  0  0  0  0  0  0
   -3.7359    1.1462    0.0798 C   0  0  0  0  0  0  0  0  0  0  0  0
   -3.5459   -0.1690   -0.6774 C   0  0  2  0  0  0  0  0  0  0  0  0
   -4.3780   -1.1106   -0.0680 O   0  0  0  0  0  0  0  0  0  0  0  0
   -2.6028   -1.2258    1.4315 H   0  0  0  0  0  0  0  0  0  0  0  0
   -0.9186   -1.7000    0.8669 H   0  0  0  0  0  0  0  0  0  0  0  0
   -2.3645   -2.4750    0.1977 H   0  0  0  0  0  0  0  0  0  0  0  0
   -1.5784   -0.2447   -2.5851 H   0  0  0  0  0  0  0  0  0  0  0  0
   -1.9296   -1.9493   -2.1644 H   0  0  0  0  0  0  0  0  0  0  0  0
    0.4688   -1.4386   -2.5355 H   0  0  0  0  0  0  0  0  0  0  0  0
    0.1391   -2.1027   -0.8480 H   0  0  0  0  0  0  0  0  0  0  0  0
    0.6604    0.7576   -1.8171 H   0  0  0  0  0  0  0  0  0  0  0  0
    2.3641   -1.8635   -1.9949 H   0  0  0  0  0  0  0  0  0  0  0  0
    4.6913   -2.2782   -1.3507 H   0  0  0  0  0  0  0  0  0  0  0  0
    6.6788   -0.4072   -0.0635 H   0  0  0  0  0  0  0  0  0  0  0  0
    4.4033    0.9038    1.5208 H   0  0  0  0  0  0  0  0  0  0  0  0
    2.5688    2.5471    1.2278 H   0  0  0  0  0  0  0  0  0  0  0  0
    1.6188    1.2419    2.1142 H   0  0  0  0  0  0  0  0  0  0  0  0
    0.8419    2.3792   -0.6115 H   0  0  0  0  0  0  0  0  0  0  0  0
   -0.0122    2.6523    0.9646 H   0  0  0  0  0  0  0  0  0  0  0  0
    0.0841    0.0609    1.1022 H   0  0  0  0  0  0  0  0  0  0  0  0
   -1.5060    1.4216   -1.1569 H   0  0  0  0  0  0  0  0  0  0  0  0
   -2.2447    2.4835    0.9477 H   0  0  0  0  0  0  0  0  0  0  0  0
   -2.4128    0.8017    1.7005 H   0  0  0  0  0  0  0  0  0  0  0  0
   -4.5621    1.0974    0.7980 H   0  0  0  0  0  0  0  0  0  0  0  0
   -3.8919    1.9408   -0.7067 H   0  0  0  0  0  0  0  0  0  0  0  0
   -3.8937   -0.0780   -1.7253 H   0  0  0  0  0  0  0  0  0  0  0  0
   -4.8754   -0.7565    0.6938 H   0  0  0  0  0  0  0  0  0  0  0  0
  2  1  1  1
  2  3  1  0
  3  4  1  0
  4  5  1  0
  5  6  1  0
  6  7  2  0
  7  8  1  0
  8  9  2  0
  9 10  1  0
  9 11  1  0
 11 12  2  0
 12 13  1  0
 13 14  1  0
 14 15  1  0
 15 16  1  0
 16 17  1  0
 17 18  1  0
 18 19  1  0
 19 20  1  0
 16  2  1  0
 19  2  1  0
 15  5  1  0
 12  6  1  0
  1 21  1  0
  1 22  1  0
  1 23  1  0
  3 24  1  0
  3 25  1  0
  4 26  1  0
  4 27  1  0
  5 28  1  6
  7 29  1  0
  8 30  1  0
 10 31  1  0
 11 32  1  0
 13 33  1  0
 13 34  1  0
 14 35  1  0
 14 36  1  0
 15 37  1  1
 16 38  1  6
 17 39  1  0
 17 40  1  0
 18 41  1  0
 18 42  1  0
 19 43  1  6
 20 44  1  0
M  END
